@<TRIPOS>MOLECULE
4zibA_ATP_BS01.pdb
 31 33 0 0 0
SMALL
GASTEIGER

@<TRIPOS>ATOM
      1  PG         9.5190   34.3430   36.0230 P.3   504  ATP504      0.5373
      2  O1G        9.9680   33.3290   35.0020 O.2   504  ATP504     -0.2221
      3  O2G       10.3790   34.4340   37.2630 O.3   504  ATP504     -0.1143
      4  O3G        8.0320   34.3140   36.2950 O.3   504  ATP504     -0.1143
      5  PB         9.1750   37.1510   35.7820 P.3   504  ATP504      0.2277
      6  O1B        7.6810   37.1550   35.5740 O.2   504  ATP504     -0.5168
      7  O2B        9.7610   37.4720   37.1350 O.3   504  ATP504     -0.4368
      8  O3B        9.7730   35.7440   35.2740 O.3   504  ATP504     -0.2258
      9  PA         9.5340   39.6750   34.4840 P.3   504  ATP504      0.2189
     10  O1A        8.2300   39.7820   33.7350 O.2   504  ATP504     -0.5170
     11  O2A        9.7240   40.3970   35.7950 O.3   504  ATP504     -0.4371
     12  O3A        9.8530   38.1100   34.6790 O.3   504  ATP504     -0.2700
     13  O5'       10.7230   40.0810   33.4750 O.3   504  ATP504     -0.3112
     14  C5'       10.4910   40.0430   32.0690 C.3   504  ATP504      0.1813
     15  C4'       11.3030   38.9430   31.3970 C.3   504  ATP504      0.1801
     16  O4'       12.6420   38.9030   31.8970 O.3   504  ATP504     -0.3306
     17  C3'       10.7420   37.5580   31.6710 C.3   504  ATP504      0.2161
     18  O3'        9.7280   37.1930   30.7330 O.3   504  ATP504     -0.2175
     19  C2'       11.9530   36.6540   31.5650 C.3   504  ATP504      0.2337
     20  O2'       12.1090   36.1870   30.2210 O.3   504  ATP504     -0.2155
     21  C1'       13.1280   37.5560   31.8850 C.3   504  ATP504      0.2409
     22  N9        13.6440   37.1970   33.2270 N.ar  504  ATP504     -0.2693
     23  C8        13.1350   37.6210   34.4000 C.ar  504  ATP504      0.1816
     24  N7        13.8300   37.1190   35.4480 N.ar  504  ATP504     -0.2193
     25  C5        14.8110   36.3500   34.9420 C.ar  504  ATP504      0.1518
     26  C6        15.9060   35.5270   35.5000 C.ar  504  ATP504      0.1919
     27  N6        16.0880   35.4290   36.8350 N.pl3 504  ATP504     -0.1054
     28  N1        16.7130   34.8810   34.6340 N.ar  504  ATP504     -0.2040
     29  C2        16.5420   34.9720   33.3020 C.ar  504  ATP504      0.2016
     30  N3        15.5690   35.7020   32.7260 N.ar  504  ATP504     -0.2048
     31  C4        14.6870   36.4020   33.4790 C.ar  504  ATP504      0.1692
@<TRIPOS>BOND
     1    20    19    1
     2    18    17    1
     3    15    17    1
     4    15    16    1
     5    15    14    1
     6    19    17    1
     7    19    21    1
     8    21    16    1
     9    21    22    1
    10    14    13    1
    11    30    29   ar
    12    30    31   ar
    13    22    31   ar
    14    22    23   ar
    15    29    28   ar
    16    13     9    1
    17    31    25   ar
    18    10     9    2
    19    23    24   ar
    20     9    12    1
    21     9    11    1
    22    28    26   ar
    23    12     5    1
    24    25    24   ar
    25    25    26   ar
    26     2     1    2
    27     8     5    1
    28     8     1    1
    29    26    27    1
    30     6     5    2
    31     5     7    1
    32     1     4    1
    33     1     3    1
